OPF/118_old_load.aux
DATA (BUS, [BusNum,BusName,AreaName,BusNomVolt,BusPUVolt,BusKVVolt,BusAngle,BusLoadMW,
   BusLoadMVR,BusGenMW,BusGenMVR,BusSS,BusG,BusB,AreaNum,ZoneNum])
{
    1 "Riversde" "IEEE11"   138.00  0.95500  131.790    10.98    51.00    27.00     0.00    -3.10 ""     0.00     0.00        1        1
    2 "Pokagon" "IEEE11"   138.00  0.97139  134.052    11.52    20.00     9.00 "" "" ""     0.00     0.00        1        1
    3 "HickryCk" "IEEE11"   138.00  0.96769  133.541    11.87    39.00    10.00 "" "" ""     0.00     0.00        1        1
    4 "NwCarlsl" "IEEE11"   138.00  0.99800  137.724    15.58    30.00    12.00    -9.00   -15.00 ""     0.00     0.00        1        1
    5 "Olive" "IEEE11"   138.00  1.00198  138.274    16.03 "" "" "" "" ""     0.00   -40.16        1        1
    6 "Kankakee" "IEEE11"   138.00  0.99000  136.620    13.30    52.00    22.00     0.00    15.93 ""     0.00     0.00        1        1
    7 "JacksnRd" "IEEE11"   138.00  0.98933  136.527    12.86    19.00     2.00 "" "" ""     0.00     0.00        1        1
    8 "Olive" "IEEE11"   138.00  1.01500  140.070    21.05 "" ""   -28.00    62.76 ""     0.00     0.00        1        1
    9 "Bequine" "IEEE11"   138.00  1.04292  143.923    28.30 "" "" "" "" ""     0.00     0.00        1        1
   10 "Breed" "IEEE11"   138.00  1.05000  144.900    35.88 "" ""   450.00   -51.04 ""     0.00     0.00        1        1
   11 "SouthBnd" "IEEE11"   138.00  0.98509  135.942    13.02    70.00    23.00 "" "" ""     0.00     0.00        1        1
   12 "TwinBrch" "IEEE11"   138.00  0.99000  136.620    12.50    47.00    10.00    85.00    91.27 ""     0.00     0.00        1        1
   13 "Concord" "IEEE11"   138.00  0.96830  133.626    11.64    34.00    16.00 "" "" ""     0.00     0.00        1        1
   14 "GoshenJt" "IEEE11"   138.00  0.98359  135.736    11.78    14.00     1.00 "" "" ""     0.00     0.00        1        1
   15 "FtWayne" "IEEE11"   138.00  0.97000  133.860    11.49    90.00    30.00     0.00     3.06 ""     0.00     0.00        1        1
   16 "N. E." "IEEE11"   138.00  0.98391  135.780    12.20    25.00    10.00 "" "" ""     0.00     0.00        1        1
   17 "Sorenson" "IEEE11"   138.00  0.99513  137.328    14.01    11.00     3.00 "" "" ""     0.00     0.00        1        1
   18 "McKinley" "IEEE11"   138.00  0.97300  134.274    11.79    60.00    34.00     0.00    25.53 ""     0.00     0.00        1        1
   19 "Lincoln" "IEEE11"   138.00  0.96343  132.953    11.31    45.00    25.00     0.00    -8.00 ""     0.00     0.00        1        1
   20 "Adams" "IEEE11"   138.00  0.95806  132.212    12.19    18.00     3.00 "" "" ""     0.00     0.00        1        1
   21 "Jay" "IEEE11"   138.00  0.95862  132.290    13.78    14.00     8.00 "" "" ""     0.00     0.00        1        1
   22 "Randolph" "IEEE11"   138.00  0.96965  133.812    16.33    10.00     5.00 "" "" ""     0.00     0.00        1        1
   23 "CollCrnr" "IEEE11"   138.00  0.99966  137.953    21.25     7.00     3.00 "" "" ""     0.00     0.00        1        1
   24 "Trenton" "IEEE11"   138.00  0.99200  136.896    21.12 "" ""   -13.00   -15.28 ""     0.00     0.00        1        1
   25 "TannrsCk" "IEEE11"   138.00  1.05000  144.900    28.18 "" ""   220.00    49.80 ""     0.00     0.00        1        1
   26 "TannrsCk" "IEEE11"   138.00  1.01500  140.070    29.97 "" ""   314.00     9.90 ""     0.00     0.00        1        1
   27 "Madison" "IEEE11"   138.00  0.96800  133.584    15.61    62.00    13.00    -9.00     2.83 ""     0.00     0.00        1        1
   28 "Mullin" "IEEE11"   138.00  0.96157  132.696    13.89    17.00     7.00 "" "" ""     0.00     0.00        1        1
   29 "Grant" "IEEE11"   138.00  0.96322  132.924    12.90    24.00     4.00 "" "" ""     0.00     0.00        1        1
   30 "Sorenson" "IEEE11"   138.00  0.98552  136.002    19.04 "" "" "" "" ""     0.00     0.00        1        1
   31 "DeerCrk" "IEEE11"   138.00  0.96700  133.446    13.01    43.00    27.00     7.00    31.98 ""     0.00     0.00        1        1
   32 "Delaware" "IEEE11"   138.00  0.96359  132.975    15.06    59.00    23.00     0.00   -14.00 ""     0.00     0.00        1        1
   33 "Haviland" "IEEE11"   138.00  0.97156  134.075    10.86    23.00     9.00 "" "" ""     0.00     0.00        1        1
   34 "Rockhill" "IEEE11"   138.00  0.98586  136.049    11.51    59.00    26.00     0.00    -8.00 ""     0.00    13.61        1        1
   35 "WestLima" "IEEE11"   138.00  0.98068  135.334    11.08    33.00     9.00 "" "" ""     0.00     0.00        1        1
   36 "Sterling" "IEEE11"   138.00  0.98000  135.240    11.08    31.00    17.00     0.00    -1.25 ""     0.00     0.00        1        1
   37 "EastLima" "IEEE11"   138.00  0.99198  136.893    11.97 "" "" "" "" ""     0.00   -24.60        1        1
   38 "EastLima" "IEEE11"   138.00  0.96198  132.754    17.11 "" "" "" "" ""     0.00     0.00        1        1
   39 "NwLibrty" "IEEE11"   138.00  0.97045  133.922     8.60    27.00    11.00 "" "" ""     0.00     0.00        1        1
   40 "West End" "IEEE11"   138.00  0.97000  133.860     7.52    20.00    23.00   -46.00    26.89 ""     0.00     0.00        1        1
   41 "S.Tiffin" "IEEE11"   138.00  0.96683  133.423     7.08    37.00    10.00 "" "" ""     0.00     0.00        1        1
   42 "Howard" "IEEE11"   138.00  0.98500  135.930     8.67    37.00    23.00   -59.00    41.00 ""     0.00     0.00        1        1
   43 "S.Kenton" "IEEE11"   138.00  0.97848  135.030    11.46    18.00     7.00 "" "" ""     0.00     0.00        1        1
   44 "WMVernon" "IEEE11"   138.00  0.98501  135.931    13.95    16.00     8.00 "" "" ""     0.00     9.70        1        1
   45 "N.Newark" "IEEE11"   138.00  0.98665  136.158    15.78    53.00    22.00 "" "" ""     0.00     9.73        1        1
   46 "W.Lancst" "IEEE11"   138.00  1.00500  138.690    18.58    28.00    10.00    19.00    -5.23 ""     0.00    10.10        1        1
   47 "Crooksvl" "IEEE11"   138.00  1.01705  140.353    20.81    34.00     0.00 "" "" ""     0.00     0.00        1        1
   48 "Zanesvll" "IEEE11"   138.00  1.02063  140.847    20.03    20.00    11.00 "" "" ""     0.00    15.63        1        1
   49 "Philo" "IEEE11"   138.00  1.02500  141.450    21.03    87.00    30.00   204.00   115.65 ""     0.00     0.00        1        1
   50 "WCambrdg" "IEEE11"   138.00  1.00108  138.149    18.99    17.00     4.00 "" "" ""     0.00     0.00        1        1
   51 "Newcmrst" "IEEE11"   138.00  0.96688  133.429    16.37    17.00     8.00 "" "" ""     0.00     0.00        1        1
   52 "SCoshoct" "IEEE11"   138.00  0.95682  132.041    15.42    18.00     5.00 "" "" ""     0.00     0.00        1        1
   53 "Wooster" "IEEE11"   138.00  0.94598  130.546    14.44    23.00    11.00 "" "" ""     0.00     0.00        1        1
   54 "Torrey" "IEEE11"   138.00  0.95500  131.790    15.35   113.00    32.00    48.00     3.90 ""     0.00     0.00        1        1
   55 "Wagenhls" "IEEE11"   138.00  0.95200  131.376    15.06    63.00    22.00     0.00     4.66 ""     0.00     0.00        1        1
   56 "Sunnysde" "IEEE11"   138.00  0.95400  131.652    15.25    84.00    18.00     0.00    -2.29 ""     0.00     0.00        1        1
   57 "WNwPhil1" "IEEE11"   138.00  0.97058  133.940    16.46    12.00     3.00 "" "" ""     0.00     0.00        1        1
   58 "WNwPhil2" "IEEE11"   138.00  0.95904  132.347    15.60    12.00     3.00 "" "" ""     0.00     0.00        1        1
   59 "Tidd" "IEEE11"   138.00  0.98500  135.930    19.45   277.00   113.00   155.00    76.83 ""     0.00     0.00        1        1
   60 "SWKammer" "IEEE11"   138.00  0.99316  137.056    23.23    78.00     3.00 "" "" ""     0.00     0.00        1        1
   61 "W.Kammer" "IEEE11"   138.00  0.99500  137.310    24.13 "" ""   160.00   -40.39 ""     0.00     0.00        1        1
   62 "Natrium" "IEEE11"   138.00  0.99800  137.724    23.51    77.00    14.00     0.00     1.26 ""     0.00     0.00        1        1
   63 "Tidd" "IEEE11"   138.00  0.96874  133.686    22.83 "" "" "" "" ""     0.00     0.00        1        1
   64 "Kammer" "IEEE11"   138.00  0.98374  135.756    24.60 "" "" "" "" ""     0.00     0.00        1        1
   65 "Muskngum" "IEEE11"   138.00  1.00500  138.690    27.72 "" ""   391.00    80.81 ""     0.00     0.00        1        1
   66 "Muskngum" "IEEE11"   138.00  1.05000  144.900    27.56    39.00    18.00   392.00    -1.95 ""     0.00     0.00        1        1
   67 "Summerfl" "IEEE11"   138.00  1.01968  140.716    24.92    28.00     7.00 "" "" ""     0.00     0.00        1        1
   68 "Sporn" "IEEE11"   138.00  1.00325  138.448    27.60 "" "" "" "" ""     0.00     0.00        1        1
   69 "Sporn" "IEEE11"   138.00  1.03500  142.830    30.00 "" ""   513.38   -82.38 ""     0.00     0.00        1        1
   70 "Portsmth" "IEEE11"   138.00  0.98400  135.792    22.62    66.00    20.00     0.00     9.66 ""     0.00     0.00        1        1
   71 "NPortsmt" "IEEE11"   138.00  0.98684  136.185    22.21 "" "" "" "" ""     0.00     0.00        1        1
   72 "Hillsbro" "IEEE11"   138.00  0.98000  135.240    21.11 "" ""   -12.00   -11.13 ""     0.00     0.00        1        1
   73 "Sargents" "IEEE11"   138.00  0.99100  136.758    22.00 "" ""    -6.00     9.65 ""     0.00     0.00        1        1
   74 "Bellefnt" "IEEE11"   138.00  0.95800  132.204    21.67    68.00    27.00     0.00    -5.63 ""     0.00    11.01        1        1
   75 "SthPoint" "IEEE11"   138.00  0.96733  133.492    22.93    47.00    11.00 "" "" ""     0.00     0.00        1        1
   76 "Darrah" "IEEE11"   138.00  0.94300  130.134    21.80    68.00    36.00     0.00     5.27 ""     0.00     0.00        1        1
   77 "Turner" "IEEE11"   138.00  1.00600  138.828    26.76    61.00    28.00     0.00    11.94 ""     0.00     0.00        1        1
   78 "Chemical" "IEEE11"   138.00  1.00342  138.472    26.45    71.00    26.00 "" "" ""     0.00     0.00        1        1
   79 "CapitlHl" "IEEE11"   138.00  1.00922  139.273    26.75    39.00    32.00 "" "" ""     0.00    20.37        1        1
   80 "CabinCrk" "IEEE11"   138.00  1.04000  143.520    29.00   130.00    26.00   477.00   105.05 ""     0.00     0.00        1        1
   81 "Kanawha" "IEEE11"   138.00  0.99681  137.560    28.15 "" "" "" "" ""     0.00     0.00        1        1
   82 "Logan" "IEEE11"   138.00  0.98874  136.446    27.28    54.00    27.00 "" "" ""     0.00    19.55        1        1
   83 "Sprigg" "IEEE11"   138.00  0.98452  135.864    28.47    20.00    10.00 "" "" ""     0.00     9.69        1        1
   84 "BetsyLne" "IEEE11"   138.00  0.97975  135.206    31.00    11.00     7.00 "" "" ""     0.00     0.00        1        1
   85 "BeaverCk" "IEEE11"   138.00  0.98500  135.930    32.56    24.00    15.00     0.00    -5.77 ""     0.00     0.00        1        1
   86 "Hazard" "IEEE11"   138.00  0.98669  136.163    31.19    21.00    10.00 "" "" ""     0.00     0.00        1        1
   87 "Pinevlle" "IEEE11"   138.00  1.01500  140.070    31.45 "" ""     4.00    11.02 ""     0.00     0.00        1        1
   88 "Fremont" "IEEE11"   138.00  0.98746  136.269    35.69    48.00    10.00 "" "" ""     0.00     0.00        1        1
   89 "ClinchRv" "IEEE11"   138.00  1.00500  138.690    39.75 "" ""   607.00   -11.79 ""     0.00     0.00        1        1
   90 "Holston" "IEEE11"   138.00  0.98500  135.930    33.34    78.00    42.00   -85.00    59.30 ""     0.00     0.00        1        1
   91 "HolstonT" "IEEE11"   138.00  0.98000  135.240    33.36 "" ""   -10.00   -14.85 ""     0.00     0.00        1        1
   92 "Saltvlle" "IEEE11"   138.00  0.99228  136.934    33.86    65.00    10.00     0.00    -3.00 ""     0.00     0.00        1        1
   93 "Tazewell" "IEEE11"   138.00  0.98691  136.193    30.85    12.00     7.00 "" "" ""     0.00     0.00        1        1
   94 "Switchbk" "IEEE11"   138.00  0.99057  136.699    28.69    30.00    16.00 "" "" ""     0.00     0.00        1        1
   95 "Caldwell" "IEEE11"   138.00  0.98092  135.368    27.72    42.00    31.00 "" "" ""     0.00     0.00        1        1
   96 "Baileysv" "IEEE11"   138.00  0.99267  136.988    27.55    38.00    15.00 "" "" ""     0.00     0.00        1        1
   97 "Sundial" "IEEE11"   138.00  1.01137  139.569    27.93    15.00     9.00 "" "" ""     0.00     0.00        1        1
   98 "Bradley" "IEEE11"   138.00  1.02351  141.244    27.45    34.00     8.00 "" "" ""     0.00     0.00        1        1
   99 "Hinton" "IEEE11"   138.00  1.01000  139.380    27.09 "" ""   -42.00   -17.54 ""     0.00     0.00        1        1
  100 "Glen Lyn" "IEEE11"   138.00  1.01700  140.346    28.09    37.00    18.00   252.00   110.06 ""     0.00     0.00        1        1
  101 "Wythe" "IEEE11"   138.00  0.99244  136.956    29.66    22.00    15.00 "" "" ""     0.00     0.00        1        1
  102 "Smythe" "IEEE11"   138.00  0.99100  136.758    32.36     5.00     3.00 "" "" ""     0.00     0.00        1        1
  103 "Claytor" "IEEE11"   138.00  1.00072  138.099    24.49    23.00    16.00    40.00    40.00 ""     0.00     0.00        1        1
  104 "Hancock" "IEEE11"   138.00  0.97100  133.998    21.75    38.00    25.00     0.00     5.64 ""     0.00     0.00        1        1
  105 "Roanoke" "IEEE11"   138.00  0.96599  133.307    20.63    31.00    26.00     0.00    -8.00 ""     0.00    18.66        1        1
  106 "Cloverdl" "IEEE11"   138.00  0.96179  132.727    20.38    43.00    16.00 "" "" ""     0.00     0.00        1        1
  107 "Reusens" "IEEE11"   138.00  0.95200  131.376    17.59    28.00    12.00   -22.00     5.69 ""     0.00     5.44        1        1
  108 "Blaine" "IEEE11"   138.00  0.96681  133.420    19.44     2.00     1.00 "" "" ""     0.00     0.00        1        1
  109 "Franklin" "IEEE11"   138.00  0.96746  133.510    18.99     8.00     3.00 "" "" ""     0.00     0.00        1        1
  110 "Fieldale" "IEEE11"   138.00  0.97300  134.274    18.15    39.00    30.00     0.00     4.85 ""     0.00     5.68        1        1
  111 "DanRiver" "IEEE11"   138.00  0.98000  135.240    19.79 "" ""    36.00    -1.84 ""     0.00     0.00        1        1
  112 "Danville" "IEEE11"   138.00  0.97500  134.550    15.05    25.00    13.00   -43.00    41.51 ""     0.00     0.00        1        1
  113 "Deer Crk" "IEEE11"   138.00  0.99300  137.034    14.00 "" ""    -6.00     6.32 ""     0.00     0.00        1        1
  114 "WMedford" "IEEE11"   138.00  0.96044  132.540    14.73     8.00     3.00 "" "" ""     0.00     0.00        1        1
  115 "Medford" "IEEE11"   138.00  0.96032  132.525    14.72    22.00     7.00 "" "" ""     0.00     0.00        1        1
  116 "KygerCrk" "IEEE11"   138.00  1.00500  138.690    27.17 "" ""  -184.00    51.32 ""     0.00     0.00        1        1
  117 "Corey" "IEEE11"   138.00  0.97382  134.388    10.96    20.00     8.00 "" "" ""     0.00     0.00        1        1
  118 "WHuntngd" "IEEE11"   138.00  0.94944  131.022    21.95    33.00    15.00 "" "" ""     0.00     0.00        1        1
}
