OPF/118_Bus_Results.txt
"    Number of Bus,MW Limit,pu Voltage Diff. Magnitude Limit:"	118	1000	2.12									
  lambdak_m	  lambdak_M	 lambda_k_m	 lambda_k_M	     mu_k_M	     mu_k_m							
0.22821	0.14244	0.46514	28.27543	0.99384	0.54357							
1217674.684	1221725.504	1219612.408	1219629.159	1.18273	0.50467							
1217668.573	1221700.624	1219626.011	1219648.493	1.15516	0.50758							
65.12329	0.10319	0.01718	0.03029	13.38958	0.38813							
732745.7326	736669.8926	734667.1232	734675.4516	4.16351	0.40195							
2.44341	0.11079	0.17715	0.46339	2.6663	0.42059							
1217666.734	1221677.503	1219602.646	1219604.066	2.27875	0.42915							
75.4772	0.10261	0.02176	0.02171	1.57683	0.46643							
1820170.964	1824028.66	1822042.107	1822027.121	336.40266	0.3517							
0.02025	0.03766	0.17054	0.0215	2.96763	0.37856							
732647.4852	736662.4691	734676.347	734686.8759	1.61462	0.45627							
0.11474	0.06766	0.08419	0.12518	2.0652	0.43535							
1217651.745	1221717.756	1219618.505	1219643.23	1.01792	0.54039							
1232936.835	1236979.724	1663738.096	1663734.566	1.90759	0.44297							
0.27322	0.13377	0.24836	1.55847	1.78758	0.44686							
1232961.094	1236991.994	1219616.532	1219624.998	1.53204	0.46474							
1217674.253	1221643.409	734671.8907	734674.1225	5.29049	0.39519							
0.38666	0.12062	0.15841	0.49444	2.1554	0.42983							
0.27201	0.13185	0.31996	1.45958	1.7626	0.44781							
1232978.706	1237034.226	1234876.047	1234884.272	1.1327	0.5137							
1232994.837	1237033.09	1219607.465	1219620.987	1.00658	0.53838							
1661858.713	1665854.83	1234878.274	1234888.396	1.13677	0.49936							
1232997.195	1236900.641	1219614.807	1219619.091	2.51955	0.39702							
67.61445	0.09567	0.022	0.02091	2.24036	0.40592							
0.04736	0.04936	11.41566	0.04416	524.67697	0.35247							
0.0313	0.0441	0.00253	0.0034	1.26546	0.45671							
0.46571	0.11624	0.02062	0.02327	1.58229	0.44371							
1232951.19	1237013.057	1219615.361	1219621.827	1.18059	0.48332							
1217653.942	1221736.398	1219613.643	1219617.609	1.17851	0.48156							
1217745.145	1221692.535	734672.4892	734675.5422	0.92647	0.55059							
1.29	0.07388	0.01938	0.02437	1.31794	0.46351							
0.35646	0.12087	0.22387	0.38617	1.57029	0.4375							
1232952.964	1237006.511	1219622.79	1219638.976	1.5903	0.45991							
0.66315	0.12328	0.3479	0.97923	7.81781	0.39007							
1217681.257	1221703.602	1219652.032	1219656.134	4.11629	0.40308							
0.43148	0.1277	0.31396	2.59454	4.78888	0.3993							
1217678.543	1221671.737	734675.9289	734678.6387	167.66024	0.38278							
1217770.492	1221739.011	734680.2865	734688.1043	0.64407	0.77209							
1217654.24	1221739.101	1219626.468	1219636.168	1.71378	0.4389							
0.13624	0.21392	0.01885	0.02509	1.98738	0.4304							
1217601.867	1221728.439	1219615.398	1219622.113	1.39844	0.46201							
0.15251	0.20225	0.01965	0.02349	1.90938	0.43436							
1661834.524	1665921.206	1234899.175	1234901.996	1.37593	0.48876							
1232974.178	1237090.01	1234883.881	1234882.059	1.03909	0.52636							
1217681.721	1221780.372	1219628.649	1219637.073	0.91403	0.54767							
0.49683	0.07278	0.07903	0.0714	1.35377	0.45531							
1217710.69	1221651.791	3932555.099	3932550.449	1.9608	0.41568							
1217707.028	1221652.59	1219632.627	1219627.657	2.39797	0.40178							
0.0458	0.05679	0.06823	0.03833	2.92445	0.39212							
1232995.856	1236970.243	1234884.332	1234890.984	1.44645	0.4437							
1217698.742	1221769.13	1219620.542	1219644.907	0.85071	0.56066							
1232976.459	1237082.24	1234864.716	1234895.027	0.755	0.61376							
1232980.428	1237093.64	1219606.423	1219629.44	0.74247	0.62625							
0.19519	0.07127	0.0332	0.02582	1.07737	0.46641							
0.17313	0.20447	0.37252	0.97205	1.0893	0.48247							
0.1698	0.20899	0.51978	1.16312	1.06354	0.48244							
1232969.404	1237016.476	1663736.71	1663742.467	1.07394	0.48692							
1232944.677	1237028.097	1234882.128	1234895.275	0.87659	0.54829							
0.06082	0.06138	0.03685	0.16915	2.48213	0.42248							
732732.9295	736613.0176	1219646.751	1219646.931	3.43735	0.38818							
0.06134	0.0581	0.03328	0.03666	5.14601	0.37908							
120.20902	0.13026	0.31563	0.54664	2.85007	0.39177							
1217809.863	1221711.766	734672.7081	734675.4177	0.68043	0.71847							
732874.5179	736739.8516	734671.6109	734671.3545	0.82971	0.59243							
0.02256	0.04207	0.0654	0.04701	0.84277	0.55542							
0.02261	0.04104	14.04789	0.02783	623.36301	0.35823							
1217812.917	1221665.801	1219621.917	1219620.22	2.47538	0.39397							
1217754.65	1221555.787	734659.0264	734660.3651	0.78347	0.57916							
0.01588	0.01504	0.03015	0.01592	378.655	0.37351							
24.49482	0.10533	0.27505	0.64817	1.3078	0.45001							
3930935.237	3934914.277	3932828.034	3932827.56	1.37504	0.44273							
23.81648	0.09202	0.07575	0.07298	1.81004	0.41858							
17.76032	0.09719	0.07611	0.07352	1.35228	0.44452							
0.2985	0.13528	0.64219	23.80892	0.82472	0.56075							
1217613.565	1221621.275	1219621.517	1219647.727	0.86116	0.54733							
0.23477	0.1518	0.28042	43.70779	0.67191	0.66856							
99.20559	0.12585	0.10271	1.11434	1.7955	0.42758							
732690.7624	736602.3856	734678.3489	734686.1949	1.41687	0.45245							
1217693.407	1221590.772	734672.5021	734681.8746	1.49495	0.44168							
0.01697	0.03884	0.03444	0.02882	163.16527	0.37826							
1217835.081	1221640.394	734670.6216	734674.8129	0.64263	0.74125							
1217700.973	1221621.595	734679.5503	734689.7656	1.157	0.4964							
1217732.77	1221631.149	1219629.56	1219635.322	1.23267	0.48432							
1233028.49	1236867.218	1219623.85	1219633.31	1.3309	0.47015							
213.71866	0.10624	0.32831	4.68915	1.93945	0.42714							
1233054.106	1236883.693	1219648.491	1219658.531	1.2477	0.48927							
2.41105	0.07379	0.07117	0.00295	2.05399	0.4206							
1217820.743	1221561.537	1219626.667	1219635.974	1.93185	0.42024							
0.0138	0.02735	0.0341	0.0216	497.55909	0.35865							
161.19068	0.10105	0.01777	0.02623	1.61392	0.43697							
178.14709	0.09668	0.07556	0.07331	1.81989	0.41711							
230.00394	0.09983	0.89071	9.35927	2.22459	0.40816							
1233009.576	1236844.687	1219627.083	1219650.608	1.28874	0.47039							
1217696.666	1221569.709	1219627.147	1219653.669	1.16735	0.49462							
1217714.261	1221621.813	734663.0414	734706.2723	0.85424	0.58689							
1217734.7	1221632.547	1219609.826	1219634.963	1.07939	0.51358							
1233065.093	1236931.037	1219609.841	1219627.865	1.44318	0.46146							
1233010.127	1236869.716	1234890.968	1234896.467	2.35555	0.42101							
129.07786	0.10384	0.07877	0.07079	2.82968	0.4079							
0.03861	0.05072	0.0813	0.06778	5.55196	0.39209							
1233040.094	1236877.705	1219621.715	1219637.954	1.38999	0.46823							
1661910.469	1665705.746	1234896.166	1234905.323	1.7507	0.43167							
0.25616	0.06964	0.26368	0.30804	2.44633	0.41636							
8.81345	0.10032	0.33324	2.09754	1.34326	0.46748							
0.65649	0.10559	0.45161	0.58076	1.27251	0.47222							
1217575.555	1221600.15	1219634.727	1219644.225	1.03815	0.51289							
0.22166	0.12857	0.0339	0.03554	1.07351	0.50522							
1661635.017	1665657.952	1663740.773	1663739.35	1.2356	0.47968							
1217467.909	1221493.341	1219666.165	1219666.502	1.23078	0.48093							
0.60205	0.10108	0.3519	1.39092	1.3962	0.46345							
0.28205	0.07041	0.07364	0.00293	2.19207	0.42477							
0.18843	0.13463	0.06645	0.00301	1.12327	0.49221							
20.32688	0.10266	0.0737	0.03524	3.97212	0.38948							
1217682.855	1221725.999	1219558.335	1219562.142	1.34387	0.45861							
1217692.516	1221736.31	1219559.937	1219564.035	1.3229	0.46069							
194.81213	0.12157	0.00528	0.00325	0.80012	0.55783							
1661831.033	1665901.413	1663726.859	1663742.821	1.04305	0.54354							
1217638.858	1221686.477	1219602.93	1219646.282	0.6771	0.6638							
N/W Mat Eig	Dual Mat Eig											
-0.00373	0											
-0.00373	0											
0.80655	0											
0.80655	0											
152.1374	0											
152.1374	0											
367.79004	0											
367.79004	0											
649.07309	0											
649.07309	0											
970.74688	0											
970.74688	0											
1151.08472	0											
1151.08472	0											
1444.44278	0											
1444.44278	0											
1627.72945	0											
1627.72945	0											
2211.77677	0											
2211.77677	0											
2649.73978	0											
2649.73978	0											
3225.40305	0											
3225.40305	0											
3798.81626	0											
3798.81626	0											
4209.43691	0											
4209.43691	0											
4336.28498	0											
4336.28498	0											
4937.21879	0											
4937.21879	0											
5117.60047	0											
5117.60047	0											
5392.50314	0											
5392.50314	0											
5932.51371	0											
5932.51371	0											
6438.36406	0											
6438.36406	0											
6721.38899	0											
6721.38899	0											
7111.9209	0											
7111.9209	0											
7400.43322	0											
7400.43322	0											
8045.53559	0											
8045.53559	0											
8953.87072	0											
8953.87072	0											
9553.09904	0											
9553.09904	0											
9802.01612	0											
9802.01612	0											
10385.74091	0											
10385.74091	0											
10926.7366	0											
10926.7366	0											
10989.72503	0											
10989.72503	0											
11751.33852	0											
11751.33852	0											
11974.26549	0											
11974.26549	0											
12153.29893	0											
12153.29893	0											
12292.04567	0											
12292.04567	0											
13148.29559	0											
13148.29559	0											
13729.74373	0											
13729.74373	0											
14026.96331	0											
14026.96331	0											
14272.60614	0											
14272.60614	0											
14516.98054	0											
14516.98054	0											
14845.56838	0											
14845.56838	0											
15787.96378	0											
15787.96378	0											
15850.88997	0											
15850.88997	0											
17159.21053	0											
17159.21053	0											
17204.03026	0											
17204.03026	0											
17282.4502	0											
17282.4502	0											
17783.19312	0											
17783.19312	0											
18225.81813	0											
18225.81813	0											
18531.87803	0											
18531.87803	0											
18918.15908	0											
18918.15908	0											
19762.42273	0											
19762.42273	0											
20425.23395	0											
20425.23395	0											
21534.58825	0											
21534.58825	0											
22265.14596	0											
22265.14596	0											
22516.33034	0											
22516.33034	0											
22546.26159	0											
22546.26159	0											
22939.829	0											
22939.829	0											
25239.14801	0											
25239.14801	0											
27101.30326	0											
27101.30326	0											
27615.28844	0											
27615.28844	0											
28685.59581	0											
28685.59581	0											
29190.61773	0											
29190.61773	0											
29666.18683	0											
29666.18683	0											
30474.42628	0											
30474.42628	0											
31045.70924	0											
31045.70924	0											
31579.29759	0											
31579.29759	0											
31713.40907	0											
31713.40907	0											
31756.64556	0											
31756.64556	0											
31959.94278	0											
31959.94278	0											
32900.7498	0											
32900.7498	0											
33561.81761	0											
33561.81761	0											
33606.33469	0											
33606.33469	0											
33766.92369	0											
33766.92369	0											
33862.20569	0											
33862.20569	0											
36113.48705	0											
36113.48705	0											
37819.9785	0											
37819.9785	0											
38008.63713	0											
38008.63713	0											
39287.724	0											
39287.724	0											
40144.20013	0											
40144.20013	0											
47167.28948	0											
47167.28948	0											
48813.36178	0											
48813.36178	0											
50643.28445	0											
50643.28445	0											
54512.27204	0											
54512.27204	0											
54900.12292	0											
54900.12292	0											
63939.02795	0											
63939.02795	0											
63974.89037	0											
63974.89037	0											
66624.90047	0											
66624.90047	0											
67337.20432	0											
67337.20432	0											
67872.37023	0											
67872.37023	0											
68400.62945	0											
68400.62945	0											
68921.21044	0											
68921.21044	0											
69479.05313	0											
69479.05313	0											
71992.34373	0											
71992.34373	0											
74812.57527	0											
74812.57527	0											
75104.02833	0											
75104.02833	0											
76185.8127	0											
76185.8127	0											
78349.8119	0											
78349.8119	0											
83847.81095	0											
83847.81095	0											
84472.14448	0											
84472.14448	0											
85802.24508	0											
85802.24508	0											
90864.71711	0											
90864.71711	0											
...
 Iterations: 35												
  Tolerance:0.0000000												
Dual Optval:129575.25928902												
  Min Eigen:-0.00372955												
        Binding Const. Upper Voltage Limit at Bus:	66											
                  Bus Voltage Components												
1st Eig	2nd Eig	3rd Eig	4th Eig									
-1.034	-1.034	-0.636	-0.636									
-1.04	-1.04	-0.645	-0.645									
-1.039	-1.039	-0.637	-0.637									
-1.059	-1.059	-0.634	-0.634									
-1.055	-1.055	-0.628	-0.628									
-1.054	-1.054	-0.643	-0.643									
-1.052	-1.052	-0.648	-0.648									
-1.029	-1.029	6.094	6.094									
-1.025	-1.025	6.527	6.527									
-0.981	-0.981	6.741	6.741									
-1.047	-1.047	-0.647	-0.647									
-1.051	-1.051	-0.656	-0.656									
-1.035	-1.035	-0.661	-0.661									
-1.05	-1.05	-0.679	-0.679									
-1.048	-1.048	-0.744	-0.744									
-1.046	-1.046	-0.684	-0.684									
-1.057	-1.057	-0.761	-0.761									
-1.051	-1.051	-0.755	-0.755									
-1.048	-1.048	-0.751	-0.751									
-1.038	-1.038	-0.741	-0.741									
-1.033	-1.033	-0.738	-0.738									
-1.035	-1.035	-0.745	-0.745									
-1.044	-1.044	-0.777	-0.777									
-1.043	-1.043	-0.759	-0.759									
-1.032	-1.032	-0.859	-0.859									
-0.996	-0.996	7.093	7.093									
-1.043	-1.043	-0.755	-0.755									
-1.037	-1.037	-0.744	-0.744									
-1.038	-1.038	-0.742	-0.742									
-1.017	-1.017	6.046	6.046									
-1.041	-1.041	-0.746	-0.746									
-1.044	-1.044	-0.752	-0.752									
-1.046	-1.046	-0.768	-0.768									
-1.058	-1.058	-0.807	-0.807									
-1.055	-1.055	-0.806	-0.806									
-1.056	-1.056	-0.806	-0.806									
-1.059	-1.059	-0.809	-0.809									
-1.002	-1.002	5.863	5.863									
-1.046	-1.046	-0.8	-0.8									
-1.048	-1.048	-0.802	-0.802									
-1.041	-1.041	-0.796	-0.796									
-1.048	-1.048	-0.804	-0.804									
-1.042	-1.042	-0.8	-0.8									
-1.033	-1.033	-0.796	-0.796									
-1.028	-1.028	-0.797	-0.797									
-1.038	-1.038	-0.813	-0.813									
-1.042	-1.042	-0.814	-0.814									
-1.046	-1.046	-0.847	-0.847									
-1.046	-1.046	-0.86	-0.86									
-1.038	-1.038	-0.854	-0.854									
-1.023	-1.023	-0.843	-0.843									
-1.018	-1.018	-0.837	-0.837									
-1.018	-1.018	-0.846	-0.846									
-1.033	-1.033	-0.877	-0.877									
-1.032	-1.032	-0.881	-0.881									
-1.032	-1.032	-0.879	-0.879									
-1.032	-1.032	-0.863	-0.863									
-1.025	-1.025	-0.854	-0.854									
-1.049	-1.049	-0.969	-0.969									
-1.046	-1.046	-0.948	-0.948									
-1.047	-1.047	-0.952	-0.952									
-1.044	-1.044	-0.941	-0.941									
-1	-1	6.455	6.455									
-1.006	-1.006	6.716	6.716									
-0.996	-0.996	6.961	6.961									
-1.039	-1.039	-0.954	-0.954									
-1.038	-1.038	-0.936	-0.936									
-0.994	-0.994	6.937	6.937									
-1.035	-1.035	-0.681	-0.681									
-1.032	-1.032	-0.615	-0.615									
-1.033	-1.033	-0.626	-0.626									
-1.041	-1.041	-0.686	-0.686									
-1.033	-1.033	-0.624	-0.624									
-1.016	-1.016	-0.587	-0.587									
-1.017	-1.017	-0.595	-0.595									
-1.007	-1.007	-0.576	-0.576									
-1.034	-1.034	-0.629	-0.629									
-1.03	-1.03	-0.623	-0.623									
-1.03	-1.03	-0.626	-0.626									
-1.04	-1.04	-0.658	-0.658									
-0.985	-0.985	6.83	6.83									
-1.026	-1.026	-0.615	-0.615									
-1.027	-1.027	-0.621	-0.621									
-1.025	-1.025	-0.636	-0.636									
-1.03	-1.03	-0.65	-0.65									
-1.025	-1.025	-0.634	-0.634									
-1.034	-1.034	-0.644	-0.644									
-1.021	-1.021	-0.672	-0.672									
-1.02	-1.02	-0.712	-0.712									
-1.026	-1.026	-0.646	-0.646									
-1.027	-1.027	-0.651	-0.651									
-1.026	-1.026	-0.666	-0.666									
-1.022	-1.022	-0.642	-0.642									
-1.023	-1.023	-0.629	-0.629									
-1.014	-1.014	-0.615	-0.615									
-1.023	-1.023	-0.62	-0.62									
-1.028	-1.028	-0.633	-0.633									
-1.037	-1.037	-0.637	-0.637									
-1.041	-1.041	-0.634	-0.634									
-1.042	-1.042	-0.648	-0.648									
-1.026	-1.026	-0.639	-0.639									
-1.026	-1.026	-0.655	-0.655									
-1.042	-1.042	-0.623	-0.623									
-1.037	-1.037	-0.593	-0.593									
-1.036	-1.036	-0.586	-0.586									
-1.03	-1.03	-0.579	-0.579									
-1.031	-1.031	-0.569	-0.569									
-1.036	-1.036	-0.582	-0.582									
-1.036	-1.036	-0.581	-0.581									
-1.039	-1.039	-0.584	-0.584									
-1.045	-1.045	-0.605	-0.605									
-1.034	-1.034	-0.568	-0.568									
-1.056	-1.056	-0.761	-0.761									
-1.04	-1.04	-0.748	-0.748									
-1.039	-1.039	-0.748	-0.748									
-0.997	-0.997	6.93	6.93									
-1.036	-1.036	-0.646	-0.646									
-1.007	-1.007	-0.578	-0.578									
0	0	0	0									
-0.002	-0.002	0.002	0.002									
-0.008	-0.008	-0.006	-0.006									
-0.056	-0.056	-0.041	-0.041									
-0.064	-0.064	-0.048	-0.048									
-0.022	-0.022	-0.016	-0.016									
-0.016	-0.016	-0.01	-0.01									
-0.133	-0.133	-3.378	-3.378									
-0.247	-0.247	-2.746	-2.746									
-0.362	-0.362	-1.952	-1.952									
-0.019	-0.019	-0.01	-0.01									
-0.013	-0.013	-0.004	-0.004									
0.001	0.001	0.012	0.012									
-0.003	-0.003	0.013	0.013									
-0.003	-0.003	0.042	0.042									
-0.008	-0.008	0.014	0.014									
-0.038	-0.038	0.025	0.025									
-0.008	-0.008	0.049	0.049									
-0.001	-0.001	0.057	0.057									
-0.006	-0.006	0.152	0.152									
-0.024	-0.024	0.211	0.211									
-0.057	-0.057	0.271	0.271									
-0.128	-0.128	0.364	0.364									
-0.118	-0.118	0.403	0.403									
-0.244	-0.244	0.429	0.429									
-0.262	-0.262	-2.27	-2.27									
-0.049	-0.049	0.305	0.305									
-0.024	-0.024	0.274	0.274									
-0.011	-0.011	0.236	0.236									
-0.102	-0.102	-3.609	-3.609									
-0.013	-0.013	0.222	0.222									
-0.042	-0.042	0.275	0.275									
0.005	0.005	0.022	0.022									
-0.005	-0.005	-0.007	-0.007									
0.001	0.001	-0.006	-0.006									
0.001	0.001	-0.005	-0.005									
-0.013	-0.013	-0.022	-0.022									
-0.07	-0.07	-3.737	-3.737									
0.019	0.019	0.069	0.069									
0.023	0.023	0.111	0.111									
0.031	0.031	0.15	0.15									
0.008	0.008	0.224	0.224									
0.01	0.01	0.153	0.153									
-0.011	-0.011	0.354	0.354									
-0.034	-0.034	0.415	0.415									
-0.076	-0.076	0.441	0.441									
-0.109	-0.109	0.466	0.466									
-0.102	-0.102	0.429	0.429									
-0.12	-0.12	0.417	0.417									
-0.087	-0.087	0.41	0.41									
-0.046	-0.046	0.405	0.405									
-0.031	-0.031	0.408	0.408									
-0.017	-0.017	0.396	0.396									
-0.033	-0.033	0.369	0.369									
-0.032	-0.032	0.362	0.362									
-0.033	-0.033	0.365	0.365									
-0.049	-0.049	0.387	0.387									
-0.035	-0.035	0.391	0.391									
-0.081	-0.081	0.223	0.223									
-0.134	-0.134	0.334	0.334									
-0.148	-0.148	0.329	0.329									
-0.138	-0.138	0.366	0.366									
-0.12	-0.12	-3.384	-3.384									
-0.146	-0.146	-3.039	-3.039									
-0.194	-0.194	-2.436	-2.436									
-0.211	-0.211	0.461	0.461									
-0.162	-0.162	0.426	0.426									
-0.183	-0.183	-2.325	-2.325									
-0.231	-0.231	0.684	0.684									
-0.115	-0.115	0.676	0.676									
-0.112	-0.112	0.655	0.655									
-0.105	-0.105	0.543	0.543									
-0.11	-0.11	0.656	0.656									
-0.099	-0.099	0.684	0.684									
-0.115	-0.115	0.68	0.68									
-0.098	-0.098	0.67	0.67									
-0.158	-0.158	0.642	0.642									
-0.152	-0.152	0.64	0.64									
-0.157	-0.157	0.633	0.633									
-0.198	-0.198	0.603	0.603									
-0.183	-0.183	-2.34	-2.34									
...
                  Bus Voltage Magnitudes												
1st Eig	2nd Eig	3rd Eig	4th Eig									
1.034	1.034	0.636	0.636									
1.04	1.04	0.645	0.645									
1.039	1.039	0.637	0.637									
1.061	1.061	0.635	0.635									
1.057	1.057	0.63	0.63									
1.054	1.054	0.643	0.643									
1.052	1.052	0.648	0.648									
1.038	1.038	6.967	6.967									
1.055	1.055	7.081	7.081									
1.045	1.045	7.018	7.018									
1.047	1.047	0.647	0.647									
1.051	1.051	0.656	0.656									
1.035	1.035	0.661	0.661									
1.05	1.05	0.679	0.679									
1.048	1.048	0.745	0.745									
1.046	1.046	0.684	0.684									
1.058	1.058	0.762	0.762									
1.051	1.051	0.756	0.756									
1.048	1.048	0.753	0.753									
1.038	1.038	0.756	0.756									
1.033	1.033	0.768	0.768									
1.037	1.037	0.793	0.793									
1.051	1.051	0.858	0.858									
1.05	1.05	0.859	0.859									
1.061	1.061	0.96	0.96									
1.03	1.03	7.447	7.447									
1.045	1.045	0.815	0.815									
1.038	1.038	0.793	0.793									
1.038	1.038	0.779	0.779									
1.022	1.022	7.041	7.041									
1.041	1.041	0.778	0.778									
1.045	1.045	0.801	0.801									
1.046	1.046	0.768	0.768									
1.058	1.058	0.807	0.807									
1.055	1.055	0.806	0.806									
1.056	1.056	0.806	0.806									
1.059	1.059	0.809	0.809									
1.005	1.005	6.952	6.952									
1.046	1.046	0.803	0.803									
1.048	1.048	0.81	0.81									
1.042	1.042	0.81	0.81									
1.048	1.048	0.835	0.835									
1.042	1.042	0.815	0.815									
1.033	1.033	0.871	0.871									
1.028	1.028	0.898	0.898									
1.041	1.041	0.925	0.925									
1.048	1.048	0.938	0.938									
1.051	1.051	0.95	0.95									
1.053	1.053	0.956	0.956									
1.042	1.042	0.948	0.948									
1.024	1.024	0.936	0.936									
1.019	1.019	0.932	0.932									
1.018	1.018	0.934	0.934									
1.033	1.033	0.951	0.951									
1.033	1.033	0.953	0.953									
1.033	1.033	0.952	0.952									
1.033	1.033	0.946	0.946									
1.025	1.025	0.94	0.94									
1.052	1.052	0.995	0.995									
1.055	1.055	1.005	1.005									
1.057	1.057	1.008	1.008									
1.053	1.053	1.01	1.01									
1.008	1.008	7.288	7.288									
1.017	1.017	7.372	7.372									
1.015	1.015	7.375	7.375									
1.06	1.06	1.06	1.06									
1.05	1.05	1.028	1.028									
1.011	1.011	7.316	7.316									
1.06	1.06	0.965	0.965									
1.038	1.038	0.914	0.914									
1.039	1.039	0.906	0.906									
1.046	1.046	0.875	0.875									
1.039	1.039	0.906	0.906									
1.021	1.021	0.901	0.901									
1.023	1.023	0.904	0.904									
1.011	1.011	0.883	0.883									
1.046	1.046	0.899	0.899									
1.041	1.041	0.893	0.893									
1.042	1.042	0.89	0.89									
1.059	1.059	0.893	0.893									
1.002	1.002	7.22	7.22									
1.036	1.036	0.885	0.885									
1.038	1.038	0.886	0.886									
1.04	1.04	0.888	0.888									
1.048	1.048	0.894	0.894									
1.039	1.039	0.887	0.887									
1.05	1.05	0.896	0.896									
1.047	1.047	0.892	0.892									
1.06	1.06	0.902	0.902									
1.043	1.043	0.888	0.888									
1.045	1.045	0.89	0.89									
1.049	1.049	0.893	0.893									
1.039	1.039	0.884	0.884									
1.037	1.037	0.881	0.881									
1.025	1.025	0.872	0.872									
1.034	1.034	0.88	0.88									
1.042	1.042	0.882	0.882									
1.05	1.05	0.888	0.888									
1.053	1.053	0.893	0.893									
1.058	1.058	0.898	0.898									
1.042	1.042	0.885	0.885									
1.046	1.046	0.889	0.889									
1.052	1.052	0.894	0.894									
1.042	1.042	0.885	0.885									
1.04	1.04	0.884	0.884									
1.034	1.034	0.878	0.878									
1.034	1.034	0.879	0.879									
1.039	1.039	0.883	0.883									
1.039	1.039	0.883	0.883									
1.043	1.043	0.886	0.886									
1.051	1.051	0.893	0.893									
1.036	1.036	0.88	0.88									
1.056	1.056	0.763	0.763									
1.04	1.04	0.803	0.803									
1.04	1.04	0.804	0.804									
1.012	1.012	7.327	7.327									
1.036	1.036	0.647	0.647									
1.012	1.012	0.889	0.889									
                   Real Power Injections												
1st Eig	2nd Eig	3rd Eig	4th Eig									
-0.24	-0.24	-0.09	-0.09									
-0.201	-0.201	-0.077	-0.077									
-0.391	-0.391	-0.153	-0.153									
-0.379	-0.379	-0.159	-0.159									
0.144	0.144	-90.401	-90.401									
-0.512	-0.512	-0.181	-0.181									
-0.191	-0.191	-0.081	-0.081									
-0.393	-0.393	-52.866	-52.866									
0	0	-0.025	-0.025									
3.945	3.945	177.813	177.813									
-0.702	-0.702	-0.251	-0.251									
0.384	0.384	0.16	0.16									
-0.341	-0.341	-0.137	-0.137									
-0.14	-0.14	-0.057	-0.057									
-0.684	-0.684	-0.348	-0.348									
-0.251	-0.251	-0.113	-0.113									
-0.006	-0.006	-67.283	-67.283									
-0.46	-0.46	-0.235	-0.235									
-0.228	-0.228	0.046	0.046									
-0.181	-0.181	-0.102	-0.102									
-0.14	-0.14	-0.082	-0.082									
-0.1	-0.1	-0.072	-0.072									
-0.07	-0.07	0.063	0.063									
-0.127	-0.127	0.608	0.608									
2.012	2.012	29.53	29.53									
2.662	2.662	111.846	111.846									
-0.603	-0.603	-0.215	-0.215									
-0.171	-0.171	-0.059	-0.059									
-0.241	-0.241	-0.057	-0.057									
-0.075	-0.075	-70.797	-70.797									
-0.358	-0.358	-0.208	-0.208									
-0.434	-0.434	-0.144	-0.144									
-0.231	-0.231	-0.135	-0.135									
-0.538	-0.538	-0.259	-0.259									
-0.331	-0.331	-0.192	-0.192									
-0.196	-0.196	-0.143	-0.143									
0.113	0.113	-86.869	-86.869									
-0.085	-0.085	-56.838	-56.838									
-0.271	-0.271	-0.158	-0.158									
-0.163	-0.163	-0.009	-0.009									
-0.371	-0.371	-0.234	-0.234									
-0.542	-0.542	-0.034	-0.034									
-0.18	-0.18	-0.105	-0.105									
-0.16	-0.16	-0.118	-0.118									
-0.53	-0.53	-0.582	-0.582									
-0.089	-0.089	-0.079	-0.079									
-0.34	-0.34	-0.272	-0.272									
-0.2	-0.2	-0.165	-0.165									
1.059	1.059	0.991	0.991									
-0.17	-0.17	-0.138	-0.138									
-0.17	-0.17	-0.14	-0.14									
-0.18	-0.18	-0.191	-0.191									
-0.23	-0.23	-0.219	-0.219									
-0.642	-0.642	-0.602	-0.602									
-0.295	-0.295	-0.381	-0.381									
-0.499	-0.499	-0.428	-0.428									
-0.12	-0.12	-0.1	-0.1									
-0.12	-0.12	-0.104	-0.104									
-1.169	-1.169	-45.515	-45.515									
-0.78	-0.78	-0.658	-0.658									
1.627	1.627	-25.022	-25.022									
-0.765	-0.765	-0.722	-0.722									
-0.069	-0.069	-106.795	-106.795									
-0.148	-0.148	25.719	25.719									
3.341	3.341	212.604	212.604									
3.171	3.171	25.64	25.64									
-0.28	-0.28	-0.273	-0.273									
-0.118	-0.118	65.786	65.786									
4.594	4.594	91.137	91.137									
-0.655	-0.655	-1.183	-1.183									
0	0	0	0									
-0.117	-0.117	-0.074	-0.074									
-0.056	-0.056	-0.042	-0.042									
-0.498	-0.498	-0.388	-0.388									
-0.471	-0.471	-0.41	-0.41									
-0.437	-0.437	-0.329	-0.329									
-0.601	-0.601	-0.412	-0.412									
-0.711	-0.711	-0.555	-0.555									
-0.39	-0.39	-0.278	-0.278									
3.032	3.032	77.073	77.073									
-0.072	-0.072	-94.606	-94.606									
-0.54	-0.54	-0.401	-0.401									
-0.2	-0.2	-0.144	-0.144									
-0.11	-0.11	-0.08	-0.08									
-0.237	-0.237	-0.181	-0.181									
-0.21	-0.21	-0.153	-0.153									
0.037	0.037	0.027	0.027									
-0.48	-0.48	-0.348	-0.348									
4.995	4.995	3.626	3.626									
-1.627	-1.627	-1.179	-1.179									
-0.099	-0.099	-0.071	-0.071									
-0.648	-0.648	-0.469	-0.469									
-0.12	-0.12	-0.087	-0.087									
-0.3	-0.3	-0.217	-0.217									
-0.42	-0.42	-0.304	-0.304									
-0.38	-0.38	-0.293	-0.293									
-0.15	-0.15	-0.106	-0.106									
-0.34	-0.34	-0.243	-0.243									
-0.418	-0.418	-0.3	-0.3									
1.934	1.934	1.389	1.389									
-0.22	-0.22	-0.159	-0.159									
-0.05	-0.05	-0.036	-0.036									
0.151	0.151	0.11	0.11									
-0.373	-0.373	-0.269	-0.269									
-0.246	-0.246	-0.178	-0.178									
-0.431	-0.431	-0.311	-0.311									
-0.204	-0.204	-0.147	-0.147									
-0.02	-0.02	-0.014	-0.014									
-0.08	-0.08	-0.058	-0.058									
-0.309	-0.309	-0.223	-0.223									
0.35	0.35	0.253	0.253									
-0.314	-0.314	-0.226	-0.226									
-0.054	-0.054	-0.026	-0.026									
-0.08	-0.08	-0.048	-0.048									
-0.221	-0.221	-0.133	-0.133									
-1.816	-1.816	-95.124	-95.124									
-0.201	-0.201	-0.078	-0.078									
-0.331	-0.331	-0.256	-0.256									
               Reactive Power Injections												
1st Eig	2nd Eig	3rd Eig	4th Eig									
-0.121	-0.121	-0.045	-0.045									
-0.091	-0.091	-0.035	-0.035									
-0.101	-0.101	-0.009	-0.009									
0.751	0.751	0.337	0.337									
-0.122	-0.122	153.317	153.317									
0.162	0.162	0.064	0.064									
-0.02	-0.02	0.016	0.016									
-0.717	-0.717	1957.252	1957.252									
-0.001	-0.001	0.099	0.099									
-1.07	-1.07	-48.086	-48.086									
-0.231	-0.231	-0.074	-0.074									
0.46	0.46	0.168	0.168									
-0.161	-0.161	-0.065	-0.065									
-0.01	-0.01	-0.003	-0.003									
-0.018	-0.018	-0.015	-0.015									
-0.101	-0.101	-0.046	-0.046									
-0.128	-0.128	140.895	140.895									
0.038	0.038	0.023	0.023									
-0.038	-0.038	-0.023	-0.023									
-0.03	-0.03	-0.017	-0.017									
-0.081	-0.081	-0.066	-0.066									
-0.05	-0.05	-0.081	-0.081									
-0.03	-0.03	-0.425	-0.425									
-0.037	-0.037	-0.016	-0.016									
-0.587	-0.587	218.848	218.848									
-0.063	-0.063	1780.821	1780.821									
0.117	0.117	-0.246	-0.246									
-0.071	-0.071	-0.069	-0.069									
-0.04	-0.04	-0.047	-0.047									
-0.427	-0.427	1484.831	1484.831									
0.034	0.034	0.052	0.052									
0.025	0.025	-0.076	-0.076									
-0.09	-0.09	-0.051	-0.051									
-0.078	-0.078	-0.028	-0.028									
-0.09	-0.09	-0.05	-0.05									
0.061	0.061	0.031	0.031									
-0.104	-0.104	150.282	150.282									
-0.448	-0.448	1558.101	1558.101									
-0.11	-0.11	-0.042	-0.042									
0.128	0.128	0.089	0.089									
-0.1	-0.1	-0.062	-0.062									
0.034	0.034	-0.236	-0.236									
-0.07	-0.07	-0.005	-0.005									
-0.08	-0.08	-0.05	-0.05									
-0.221	-0.221	-0.117	-0.117									
-0.151	-0.151	-0.137	-0.137									
0	0	-0.086	-0.086									
...