OPF/out30_volt.txt
    Number of Bus,MW Limit,pu Voltage Diff. Magnitude Limit:	 14	9900.00	2.1200000
  lambdak_m	  lambdak_M	 lambda_k_m	 lambda_k_M	     mu_k_M	     mu_k_m
0.00000	0.00000	0.00015	0.00002	483.45633	0.00001
0.00001	0.00000	0.00000	0.00005	0.00013	0.00002
10799.15202	15255.94116	0.00001	0.00004	0.00004	0.00002
10740.20971	15095.04914	12668.49082	12684.18273	0.00004	0.00002
10703.14295	14986.54765	12573.09920	12602.48944	0.00004	0.00002
10755.38720	15037.68512	0.00003	0.00002	218.50216	0.00001
10698.46079	15056.28909	12553.20024	12554.08068	0.00024	0.00002
10676.28664	15034.11496	0.00003	0.00002	2.48201	0.00001
10816.34767	15175.10487	12543.08140	12536.72981	0.00105	0.00001
10727.24595	15097.52952	12516.89602	12527.07135	0.00017	0.00002
10802.59497	15144.04524	12535.62338	12551.29638	0.00017	0.00002
10792.51701	15145.31573	12590.89938	12631.25536	0.00012	0.00002
10769.90542	15147.51716	12587.00403	12636.11669	0.00009	0.00002
10889.08142	15346.71351	12509.60279	12558.82453	0.00006	0.00002
N/W Mat Eig	Dual Mat Eig
0.00000	0.00000
0.00000	0.00000
0.00039	0.00000
0.00039	0.00000
4.06724	0.00000
4.06724	0.00000
44.42865	0.00000
44.42865	0.00000
5234.60387	0.00000
5234.60387	0.00000
10543.12645	0.00000
10543.12645	0.00000
14209.04731	0.00000
14209.04731	0.00000
18417.82618	0.00000
18417.82618	0.00000
21750.33250	0.00000
21750.33250	0.00000
30754.73672	0.00000
30754.73672	0.00000
42195.25334	0.00000
42195.25334	0.00000
45828.09372	0.00000
45828.09372	0.00000
54632.05482	0.00617
54632.05482	0.00617
75223.41069	7.62495
75223.41069	7.62517
 Iterations: 22
  Tolerance:0.0000000
Dual Optval:7939.16959674
  Min Eigen:0.00000036
        Binding Const. Upper Voltage Limit at Bus:	  1
                  Bus Voltage Components
1st Eig	2nd Eig	3rd Eig	4th Eig
-1.060	-1.060	-1.060	-1.060
-1.043	-1.043	-1.044	-1.044
-0.994	-0.994	-0.997	-0.997
-1.003	-1.003	-1.007	-1.007
-1.008	-1.008	-1.006	-1.006
-1.030	-1.030	2.659	2.659
-1.023	-1.023	-6.768	-6.768
-1.031	-1.031	-6.819	-6.819
-1.023	-1.023	2.667	2.667
-1.015	-1.015	2.637	2.637
-1.018	-1.018	2.633	2.633
-1.013	-1.013	2.609	2.609
-1.008	-1.008	2.596	2.596
-0.994	-0.994	2.564	2.564
0.000	0.000	0.000	0.000
0.088	0.088	0.088	0.088
0.221	0.221	0.222	0.222
0.177	0.177	0.179	0.179
0.150	0.150	0.149	0.149
0.250	0.250	-1.442	-1.442
0.238	0.238	4.304	4.304
0.240	0.240	4.337	4.337
0.269	0.269	-1.503	-1.503
0.269	0.269	-1.494	-1.494
0.260	0.260	-1.467	-1.467
0.260	0.260	-1.460	-1.460
0.261	0.261	-1.460	-1.460
0.279	0.279	-1.504	-1.504
                  Bus Voltage Magnitudes
1st Eig	2nd Eig	3rd Eig	4th Eig
1.060	1.060	1.060	1.060
1.047	1.047	1.048	1.048
1.018	1.018	1.021	1.021
1.018	1.018	1.022	1.022
1.019	1.019	1.017	1.017
1.060	1.060	3.024	3.024
1.051	1.051	8.021	8.021
1.058	1.058	8.082	8.082
1.058	1.058	3.061	3.061
1.050	1.050	3.031	3.031
1.050	1.050	3.014	3.014
1.046	1.046	2.990	2.990
1.041	1.041	2.978	2.978
1.032	1.032	2.972	2.972
                   Real Power Injections
1st Eig	2nd Eig	3rd Eig	4th Eig
2.238	2.238	2.238	2.238
0.210	0.210	0.210	0.210
-0.942	-0.942	-0.942	-0.942
-0.478	-0.478	-0.478	-0.478
-0.076	-0.076	-0.076	-0.076
-0.112	-0.112	-0.112	-0.112
0.000	0.000	0.000	0.000
0.000	0.000	0.000	0.000
-0.295	-0.295	-0.295	-0.295
-0.090	-0.090	-0.090	-0.090
-0.035	-0.035	-0.035	-0.035
-0.061	-0.061	-0.061	-0.061
-0.135	-0.135	-0.135	-0.135
-0.149	-0.149	-0.149	-0.149
               Reactive Power Injections
1st Eig	2nd Eig	3rd Eig	4th Eig
-0.175	-0.175	-0.175	-0.175
0.320	0.320	0.320	0.320
0.134	0.134	0.134	0.134
0.039	0.039	0.039	0.039
-0.016	-0.016	-0.016	-0.016
-0.021	-0.021	-0.021	-0.021
0.000	0.000	0.000	0.000
0.048	0.048	0.048	0.048
0.024	0.024	0.024	0.024
-0.058	-0.058	-0.058	-0.058
-0.018	-0.018	-0.018	-0.018
-0.016	-0.016	-0.016	-0.016
-0.058	-0.058	-0.058	-0.058
-0.050	-0.050	-0.050	-0.050
                          Real Power LMP
1st Eig	2nd Eig	3rd Eig	4th Eig
39.256	39.256	39.256	39.256
41.349	41.349	41.349	41.349
44.568	44.568	44.568	44.568
43.548	43.548	43.548	43.548
42.834	42.834	42.834	42.834
42.823	42.823	42.823	42.823
43.578	43.578	43.578	43.578
43.578	43.578	43.578	43.578
43.588	43.588	43.588	43.588
43.703	43.703	43.703	43.703
43.415	43.415	43.415	43.415
43.528	43.528	43.528	43.528
43.776	43.776	43.776	43.776
44.576	44.576	44.576	44.576
                      Reactive Power LMP
1st Eig	2nd Eig	3rd Eig	4th Eig
-0.000	-0.000	-0.000	-0.000
0.000	0.000	0.000	0.000
0.000	0.000	0.000	0.000
0.157	0.157	0.157	0.157
0.294	0.294	0.294	0.294
-0.000	-0.000	-0.000	-0.000
0.009	0.009	0.009	0.009
-0.000	-0.000	-0.000	-0.000
-0.064	-0.064	-0.064	-0.064
0.102	0.102	0.102	0.102
0.157	0.157	0.157	0.157
0.404	0.404	0.404	0.404
0.491	0.491	0.491	0.491
0.492	0.492	0.492	0.492
                              Generation
1st Eig	2nd Eig	3rd Eig	4th Eig
2.238	2.238	2.238	2.238
0.427	0.427	0.427	0.427
0.000	0.000	0.000	0.000
0.000	0.000	0.000	0.000
0.000	0.000	0.000	0.000
0.000	0.000	0.000	0.000
0.000	0.000	0.000	0.000
0.000	0.000	0.000	0.000
0.000	0.000	0.000	0.000
0.000	0.000	0.000	0.000
0.000	0.000	0.000	0.000
0.000	0.000	0.000	0.000
0.000	0.000	0.000	0.000
0.000	0.000	0.000	0.000
     Flows
From	 To	Line	 Lambda_lm	     mu_lm	    Flow(1st Eig)	    Flow(2nd Eig)	    Flow(3rd Eig)	    Flow(4th Eig)	   Volt_Ang(1st Eig)	   Volt_Ang(2nd Eig)	   Volt_Ang(3rd Eig)	   Volt_Ang(4th Eig)
  1	  2	  1	-0.000	0.000	1.508	1.508	1.508	1.508	4.810	4.810	4.820	4.820
  1	  5	  2	-0.000	0.000	0.730	0.730	0.730	0.730	8.471	8.471	8.419	8.419
  2	  1	  3	-0.000	0.000	-1.468	-1.468	-1.468	-1.468	4.810	4.810	4.820	4.820
  2	  3	  4	-0.000	0.000	0.728	0.728	0.728	0.728	7.697	7.697	7.737	7.737
  2	  4	  5	-0.000	0.000	0.553	0.553	0.553	0.553	5.204	5.204	5.268	5.268
  2	  5	  6	-0.000	0.000	0.407	0.407	0.407	0.407	3.661	3.661	3.599	3.599
  3	  2	  7	-0.000	0.000	-0.705	-0.705	-0.705	-0.705	7.697	7.697	7.737	7.737
  3	  4	  8	-0.000	0.000	-0.226	-0.226	-0.226	-0.226	2.494	2.494	2.468	2.468
  4	  2	  9	-0.000	0.000	-0.537	-0.537	-0.537	-0.537	5.204	5.204	5.268	5.268
  4	  3	 10	-0.000	0.000	0.230	0.230	0.230	0.230	2.494	2.494	2.468	2.468
  4	  5	 11	-0.000	0.000	-0.608	-0.608	-0.608	-0.608	1.543	1.543	1.669	1.669
  4	  7	 12	-0.000	0.000	0.277	0.277	0.277	0.277	3.083	3.083	22.368	22.368
  4	  9	 13	-0.000	0.000	0.159	0.159	0.159	0.159	4.713	4.713	19.319	19.319
  5	  1	 14	-0.000	0.000	-0.704	-0.704	-0.704	-0.704	8.471	8.471	8.419	8.419
  5	  2	 15	-0.000	0.000	-0.399	-0.399	-0.399	-0.399	3.661	3.661	3.599	3.599
  5	  4	 16	-0.000	0.000	0.613	0.613	0.613	0.613	1.543	1.543	1.669	1.669
  5	  6	 17	-0.000	0.000	0.385	0.385	0.385	0.385	5.161	5.161	20.050	20.050
  6	  5	 18	-0.000	0.000	-0.385	-0.385	-0.385	-0.385	5.161	5.161	20.050	20.050
  6	 11	 19	-0.000	0.000	0.076	0.076	0.076	0.076	0.712	0.712	0.650	0.650
  6	 12	 20	-0.000	0.000	0.069	0.069	0.069	0.069	0.770	0.770	0.757	0.757
  6	 13	 21	-0.000	0.000	0.167	0.167	0.167	0.167	0.904	0.904	0.882	0.882
  7	  4	 22	-0.000	0.000	-0.277	-0.277	-0.277	-0.277	3.083	3.083	22.368	22.368
  7	  8	 23	-0.000	0.000	-0.000	-0.000	-0.000	-0.000	0.002	0.002	0.002	0.002
  7	  9	 24	-0.000	0.000	0.284	0.284	0.284	0.284	1.630	1.630	3.050	3.050
  8	  7	 25	-0.000	0.000	0.000	0.000	0.000	0.000	0.002	0.002	0.002	0.002
  9	  4	 26	-0.000	0.000	-0.159	-0.159	-0.159	-0.159	4.713	4.713	19.319	19.319
  9	  7	 27	-0.000	0.000	-0.284	-0.284	-0.284	-0.284	1.630	1.630	3.050	3.050
  9	 10	 28	-0.000	0.000	0.050	0.050	0.050	0.050	0.093	0.093	0.123	0.123
  9	 14	 29	-0.000	0.000	0.092	0.092	0.092	0.092	0.927	0.927	0.987	0.987
 10	  9	 30	-0.000	0.000	-0.050	-0.050	-0.050	-0.050	0.093	0.093	0.123	0.123
 10	 11	 31	-0.000	0.000	-0.040	-0.040	-0.040	-0.040	0.476	0.476	0.412	0.412
 11	  6	 32	-0.000	0.000	-0.076	-0.076	-0.076	-0.076	0.712	0.712	0.650	0.650
 11	 10	 33	-0.000	0.000	0.041	0.041	0.041	0.041	0.476	0.476	0.412	0.412
 12	  6	 34	-0.000	0.000	-0.069	-0.069	-0.069	-0.069	0.770	0.770	0.757	0.757
 12	 13	 35	-0.000	0.000	0.019	0.019	0.019	0.019	0.134	0.134	0.125	0.125
 13	  6	 36	-0.000	0.000	-0.165	-0.165	-0.165	-0.165	0.904	0.904	0.882	0.882
 13	 12	 37	-0.000	0.000	-0.019	-0.019	-0.019	-0.019	0.134	0.134	0.125	0.125
 13	 14	 38	-0.000	0.000	0.059	0.059	0.059	0.059	1.118	1.118	1.043	1.043
 14	  9	 39	-0.000	0.000	-0.090	-0.090	-0.090	-0.090	0.927	0.927	0.987	0.987
 14	 13	 40	-0.000	0.000	-0.059	-0.059	-0.059	-0.059	1.118	1.118	1.043	1.043
                          Optimal Primal
  1st Eig	  2nd Eig	  3rd Eig	  4th Eig
7939.170	7939.170	7939.170	7939.170
